Version 4
SHEET 1 1264 680
WIRE -656 -160 -720 -160
WIRE -560 -160 -656 -160
WIRE -528 -160 -560 -160
WIRE -368 -160 -448 -160
WIRE -304 -160 -368 -160
WIRE -240 -160 -304 -160
WIRE 64 -160 -240 -160
WIRE 176 -160 64 -160
WIRE 288 -160 176 -160
WIRE 400 -160 288 -160
WIRE 544 -160 480 -160
WIRE 640 -160 544 -160
WIRE 816 -160 704 -160
WIRE 960 -160 816 -160
WIRE 1024 -160 960 -160
WIRE 1088 -160 1024 -160
WIRE 1136 -160 1088 -160
WIRE 1184 -160 1136 -160
WIRE 816 -144 816 -160
WIRE 1184 -128 1184 -160
WIRE -720 -112 -720 -160
WIRE 960 -112 960 -160
WIRE 1024 -112 1024 -160
WIRE 1088 -112 1088 -160
WIRE -368 -96 -368 -160
WIRE -304 -96 -304 -160
WIRE -240 -96 -240 -160
WIRE 64 -80 64 -160
WIRE -96 -32 -128 -32
WIRE 448 -32 224 -32
WIRE 544 -32 544 -160
WIRE -368 -16 -368 -32
WIRE -304 -16 -304 -32
WIRE -304 -16 -368 -16
WIRE -240 -16 -240 -32
WIRE -240 -16 -304 -16
WIRE 960 -16 960 -48
WIRE 1024 -16 1024 -48
WIRE 1024 -16 960 -16
WIRE 1088 -16 1088 -48
WIRE 1088 -16 1024 -16
WIRE 1184 -16 1184 -48
WIRE 1184 -16 1088 -16
WIRE -720 16 -720 -32
WIRE -368 16 -368 -16
WIRE 960 16 960 -16
WIRE -240 32 -240 -16
WIRE -224 32 -240 32
WIRE -96 32 -144 32
WIRE 816 32 816 -64
WIRE 816 32 224 32
WIRE 544 80 544 -32
WIRE -560 96 -560 -160
WIRE -96 96 -560 96
WIRE 416 96 224 96
WIRE -128 128 -128 -32
WIRE -128 128 -528 128
WIRE 816 128 816 32
WIRE -96 160 -624 160
WIRE 496 160 224 160
WIRE 416 192 416 96
WIRE 544 192 544 176
WIRE 544 192 416 192
WIRE -96 224 -432 224
WIRE -192 288 -288 288
WIRE -96 288 -192 288
WIRE 288 288 288 -160
WIRE 288 288 224 288
WIRE 448 304 448 -32
WIRE 544 304 544 192
WIRE -624 336 -624 160
WIRE -528 336 -528 128
WIRE -432 336 -432 224
WIRE -288 352 -288 288
WIRE 288 352 224 352
WIRE -192 384 -192 368
WIRE 288 384 288 352
WIRE -624 480 -624 416
WIRE -528 480 -528 416
WIRE -528 480 -624 480
WIRE -432 480 -432 416
WIRE -432 480 -528 480
WIRE -288 480 -288 416
WIRE -288 480 -432 480
WIRE -192 480 -192 448
WIRE -192 480 -288 480
WIRE 64 480 64 400
WIRE 64 480 -192 480
WIRE 288 480 288 464
WIRE 288 480 64 480
WIRE 448 480 448 368
WIRE 448 480 288 480
WIRE 544 480 544 384
WIRE 544 480 448 480
WIRE 816 480 816 208
WIRE 816 480 544 480
WIRE 544 512 544 480
FLAG 544 -32 V_sw
FLAG 544 512 0
FLAG -368 16 0
FLAG 960 16 0
FLAG -720 16 0
FLAG -656 -160 vin
FLAG 176 -160 vind
FLAG 1136 -160 vout
SYMBOL PowerProducts\\LTC3783 64 128 R0
SYMATTR InstName U1
SYMBOL nmos 496 80 R0
SYMATTR InstName M1
SYMATTR Value BSC440N10NS3
SYMBOL res 528 288 R0
SYMATTR InstName R1
SYMATTR Value 20m
SYMATTR SpiceLine tol=1 pwr=0.75
SYMBOL ind 384 -144 R270
WINDOW 0 32 56 VTop 2
WINDOW 3 5 56 VBottom 2
SYMATTR InstName L1
SYMATTR Value 22µ
SYMATTR SpiceLine Ipk=6.5 Rser=60m
SYMBOL res 272 368 R0
SYMATTR InstName R2
SYMATTR Value 11k
SYMATTR SpiceLine tol=1
SYMBOL res 800 -160 R0
SYMATTR InstName R3
SYMATTR Value 33k
SYMATTR SpiceLine tol=1
SYMBOL res 800 112 R0
SYMATTR InstName R4
SYMATTR Value 1k
SYMATTR SpiceLine tol=1
SYMBOL schottky 640 -144 R270
WINDOW 0 32 32 VTop 2
WINDOW 3 0 32 VBottom 2
SYMATTR InstName D1
SYMATTR Value RB088BM100
SYMATTR Description Diode
SYMATTR Type diode
SYMBOL cap 432 304 R0
SYMATTR InstName C1
SYMATTR Value 4.7µ
SYMATTR SpiceLine V=10 Irms=2 Rser=5m Lser=15n
SYMBOL cap -208 384 R0
SYMATTR InstName C3
SYMATTR Value 10n
SYMATTR SpiceLine V=50
SYMBOL cap 944 -112 R0
SYMATTR InstName C4
SYMATTR Value 47µ
SYMATTR SpiceLine V=63 Irms=2.6 Rser=29m Lser=10n
SYMBOL cap 1008 -112 R0
SYMATTR InstName C5
SYMATTR Value 10n
SYMATTR SpiceLine V=75 Irms=2.5 Rser=0.01
SYMBOL cap -320 -96 R0
SYMATTR InstName C6
SYMATTR Value 100n
SYMATTR SpiceLine V=50 Irms=2.5 Rser=0.01 Lser=5n
SYMBOL cap -384 -96 R0
SYMATTR InstName C7
SYMATTR Value 10µ
SYMATTR SpiceLine V=35 Irms=2.5 Rser=0.01 Lser=22n
SYMBOL cap 1072 -112 R0
SYMATTR InstName C8
SYMATTR Value 1µ
SYMATTR SpiceLine V=75 Irms=2.5 Rser=0.01
SYMBOL cap -256 -96 R0
SYMATTR InstName C9
SYMATTR Value 1µ
SYMATTR SpiceLine V=50 Irms=2.5 Rser=0.01 Lser=10n
SYMBOL res -432 -176 R90
WINDOW 0 0 56 VBottom 2
WINDOW 3 32 56 VTop 2
SYMATTR InstName R6
SYMATTR Value 20m
SYMATTR SpiceLine tol=1 pwr=0.75
SYMBOL res -128 16 R90
WINDOW 0 0 56 VBottom 2
WINDOW 3 32 56 VTop 2
SYMATTR InstName R7
SYMATTR Value 10k
SYMATTR SpiceLine tol=1
SYMBOL voltage -432 320 R0
WINDOW 123 0 0 Left 0
WINDOW 39 0 0 Left 0
SYMATTR InstName V1
SYMATTR Value 3.3
SYMBOL voltage -528 320 R0
WINDOW 123 0 0 Left 0
WINDOW 39 0 0 Left 0
SYMATTR InstName V2
SYMATTR Value 3.3
SYMBOL voltage -624 320 R0
WINDOW 123 0 0 Left 0
WINDOW 39 0 0 Left 0
SYMATTR InstName V3
SYMATTR Value .738
SYMBOL voltage -720 -128 R0
WINDOW 123 0 0 Left 0
WINDOW 39 24 44 Left 2
SYMATTR SpiceLine Rser=0.05
SYMATTR InstName V4
SYMATTR Value 9
SYMBOL res 1168 -144 R0
SYMATTR InstName R8
SYMATTR Value 9
SYMBOL res -208 272 R0
SYMATTR InstName R5
SYMATTR Value 1k
SYMATTR SpiceLine tol=1
TEXT -688 -320 Left 2 !.tran 100m steady
